Header
  CHECK KEYWORDS Warn
  Mesh DB "." "."
  Include Path ""
  Results Directory ""
End

Simulation
  Max Output Level = 5
  Coordinate System = Cartesian
  Coordinate Mapping(3) = 1 2 3
  Simulation Type = Steady state
  Steady State Max Iterations = 1
  Output Intervals(1) = 1
  Post File = case251Ejemploprofe.vtu
End

Constants
  Permittivity of Vacuum = 8.85418781e-12
  Permeability of Vacuum  = 1.25663706e-6
End

! ---------- BODY FORCES (Magnetización) ----------
Body Force 1
  Name = "M_plus"
  Magnetization 1 = 0
  Magnetization 2 = 0
  Magnetization 3 = Real 8.0e5
End

Body Force 2
  Name = "M_minus"
  Magnetization 1 = 0
  Magnetization 2 = 0
  Magnetization 3 = Real -8.0e5
End

! ---------- MATERIALES ----------
Material 1
  Name = "Air"
  Relative Permeability = 1.00000037
  Relative Permittivity = 1.00059
  Density = 1.205
End

Material 2
  Name = "Mag +"
  Relative Permeability = 1.05
End

Material 3
  Name = "Mag -"
  Relative Permeability = 1.05
End

! ---------- CUERPOS (ajusta IDs a tu malla) ----------
Body 1
  Target Bodies(1) = 2      ! imán +z
  Name = "Mag + (top/ext?)"
  Equation = 1
  Material = 2
  Body Force = 1
End

Body 2
  Target Bodies(1) = 1      ! imán -z
  Name = "Mag -"
  Equation = 1
  Material = 3
  Body Force = 1
End

Body 3
  Target Bodies(1) = 4      ! imán -z
  Name = "Mag -"
  Equation = 1
  Material = 3
  Body Force = 2
End

Body 4
  Target Bodies(1) = 3      ! imán +z
  Name = "Mag +"
  Equation = 1
  Material = 2
  Body Force = 1
End

Body 5
  Target Bodies(1) = 5      ! aire
  Name = "Air"
  Equation = 1
  Material = 1
End

! ---------- SOLVER PRINCIPAL ----------
Solver 1
  Equation = MgDyn
  Procedure = "MagnetoDynamics" "WhitneyAVSolver"
  Exec Solver = Always
  Stabilize = True
  Optimize Bandwidth = True
  Steady State Convergence Tolerance = 1.0e-5
  Nonlinear System Convergence Tolerance = 1.0e-7
  Nonlinear System Max Iterations = 20
  Nonlinear System Newton After Iterations = 3
  Nonlinear System Newton After Tolerance = 1.0e-3
  Nonlinear System Relaxation Factor = 1
  Linear System Solver = Iterative
  Linear System Iterative Method = BiCGStab
  Linear System Max Iterations = 1500
  Linear System Convergence Tolerance = 1.0e-8
  BiCGstabl polynomial degree = 2
  Linear System Preconditioning = ILU0
  Linear System ILUT Tolerance = 1.0e-3
  Linear System Abort Not Converged = False
  Linear System Residual Output = 10
  Linear System Precondition Recompute = 1
End

! ---------- POST: B y H (elemental + nodal) ----------
Solver 2
  Equation = MgDynPost
  Procedure = "MagnetoDynamics" "MagnetoDynamicsCalcFields"
  Exec Solver = After Timestep
  Potential Variable = AV
  Calculate Magnetic Flux Density   = Logical True   ! B
  Calculate Magnetic Field Strength = Logical True   ! H
  Calculate Elemental Fields        = Logical True   ! -> Cell Data
  Calculate Nodal Fields            = Logical True   ! -> Point Data
  Linear System Solver = Direct
  Linear System Direct Method = UMFPACK
End

Equation 1
  Name = "Mgdyn Eq"
  Active Solvers(2) = 1 2
End

! ---------- BC EXTERNA (ajusta IDs) ----------
Boundary Condition 1
  Name = "ExternalBC"
  Target Boundaries(3) = 17 18 19
  AV {e} = Real 0
End
